2024_89_CemigReconfigurationCases/1_AlimsCemig/ALSD204/ALSD204SegmentosMT.dss
new line.TR10199862 bus1=BMT135613914.1,bus2=BMT135613921.1,Phases=1,Linecode=CAB202_3_1,Length=0.090035000,Units=km
new line.TR10199869 bus1=BMT135613921.1,bus2=BMT135613928.1,Phases=1,Linecode=CAB202_3_1,Length=0.087035000,Units=km
new line.TR10199876 bus1=BMT135613921.1,bus2=BMT135613935.1,Phases=1,Linecode=CAB103_3_1,Length=0.045811000,Units=km
new line.TR10698213 bus1=BMT172373674.2,bus2=BMT172373677.2,Phases=1,Linecode=CAB202_3_1,Length=0.305502000,Units=km
new line.TR10698220 bus1=BMT172373677.2,bus2=BMT172373678.2,Phases=1,Linecode=CAB202_3_1,Length=0.019802000,Units=km
new line.TR10698465 bus1=BMT172373677.2,bus2=BMT172373679.2,Phases=1,Linecode=CAB103_3_1,Length=0.039120000,Units=km
new line.TR10868803 bus1=BMT154738181.3,bus2=BMT7117644B.3,Phases=1,Linecode=CAB202_3_1,Length=0.173651000,Units=km
new line.TR10868810 bus1=BMT7117644B.3,bus2=BMT154738184.3,Phases=1,Linecode=CAB202_3_1,Length=0.080122000,Units=km
new line.TR11693788 bus1=BMT113779542.1,bus2=BMT113779563.1,Phases=1,Linecode=CAB202_3_1,Length=0.094571000,Units=km
new line.TR11694656 bus1=BMT160241884.3,bus2=BMT160241886.3,Phases=1,Linecode=CAB202_3_1,Length=0.104664000,Units=km
new line.TR11716874 bus1=BMT172373662.2,bus2=BMT172373665.2,Phases=1,Linecode=CAB103_3_1,Length=0.051871000,Units=km
new line.TR12094013 bus1=BMT835040B.1.2.3,bus2=BMT169163847.1.2.3,Phases=3,Linecode=CAB103_3_3,Length=0.017032000,Units=km
new line.TR12094020 bus1=BMT835033B.1.2.3,bus2=BMT169163847.1.2.3,Phases=3,Linecode=CAB103_3_3,Length=0.011404000,Units=km
new line.TR12094027 bus1=BMT169163847.1.2.3,bus2=BMT832065B.1.2.3,Phases=3,Linecode=CABA06_3_3,Length=0.020619000,Units=km
new line.TR12094034 bus1=BMT832065B.1.2.3,bus2=BMT832086B.1.2.3,Phases=3,Linecode=CABA06_3_3,Length=0.025004000,Units=km
new line.TR12094041 bus1=BMT832086B.1.2.3,bus2=BMT169163850.1.2.3,Phases=3,Linecode=CABA06_3_3,Length=0.030811000,Units=km
new line.TR12103001 bus1=BMT172298552.1,bus2=BMT8224624B.1,Phases=1,Linecode=CAB202_3_1,Length=0.012085000,Units=km
new line.TR12103008 bus1=BMT8224624B.1,bus2=BMT172298559.1,Phases=1,Linecode=CAB202_3_1,Length=0.062656000,Units=km
new line.TR12139271 bus1=BMT164047373.1.2.3,bus2=BMT164047374.1.2.3,Phases=3,Linecode=CAB103_3_3,Length=0.029551000,Units=km
new line.TR12243114 bus1=BMT164070250.3,bus2=BMT164070251.3,Phases=1,Linecode=CAB202_3_1,Length=0.185292000,Units=km
new line.TR12275459 bus1=BMT168422662.1.2.3,bus2=BMT168422663.1.2.3,Phases=3,Linecode=CAB202_3_3,Length=0.091846000,Units=km
new line.TR12275460 bus1=BMT168422663.1.2.3,bus2=BMT98396825.1.2.3,Phases=3,Linecode=CAB202_3_3,Length=0.190665000,Units=km
new line.TR12275466 bus1=BMT168422663.1,bus2=BMT168422664.1,Phases=1,Linecode=CAB103_3_1,Length=0.057286000,Units=km
new line.TR12335870 bus1=BMT161731654.1.2.3,bus2=BMT161731656.1.2.3,Phases=3,Linecode=CAB102_3_3,Length=0.029971000,Units=km
new line.TR12370402 bus1=BMT172596182.1.2.3,bus2=BMT8975265B.1.2.3,Phases=3,Linecode=CABA06_3_3,Length=0.034415000,Units=km
new line.TR12370403 bus1=BMT8975265B.1.2.3,bus2=BMT8975267B.1.2.3,Phases=3,Linecode=CABA06_3_3,Length=0.039629000,Units=km
new line.TR12370404 bus1=BMT8975267B.1.2.3,bus2=BMT8975271B.1.2.3,Phases=3,Linecode=CABA06_3_3,Length=0.031895000,Units=km
new line.TR12370405 bus1=BMT8975271B.1.2.3,bus2=BMT172596184.1.2.3,Phases=3,Linecode=CABA06_3_3,Length=0.042445000,Units=km
new line.TR12391950 bus1=BMT172373654.2,bus2=BMT8997824B.2,Phases=1,Linecode=CAB202_3_1,Length=0.190851000,Units=km
new line.TR12391951 bus1=BMT8997824B.2,bus2=BMT172373657.2,Phases=1,Linecode=CAB202_3_1,Length=0.144796000,Units=km
new line.TR12391952 bus1=BMT172373657.2,bus2=BMT172373658.2,Phases=1,Linecode=CAB103_3_1,Length=0.049250000,Units=km
new line.TR12394953 bus1=BMT159534659.3,bus2=BMT159534661.3,Phases=1,Linecode=CAB103_3_1,Length=0.027590000,Units=km
new line.TR12394954 bus1=BMT159534661.3,bus2=BMT159534662.3,Phases=1,Linecode=CAB202_3_1,Length=0.385175000,Units=km
new line.TR1245952 bus1=BMT167011601.1.2.3,bus2=BMT829776B.1.2.3,Phases=3,Linecode=CAB102_3_3,Length=0.032393000,Units=km
new line.TR1245973 bus1=BMT829776B.1.2.3,bus2=BMT829783B.1.2.3,Phases=3,Linecode=CAB102_3_3,Length=0.030599000,Units=km
new line.TR1245987 bus1=BMT829783B.1.2.3,bus2=BMT167011602.1.2.3,Phases=3,Linecode=CAB102_3_3,Length=0.030599000,Units=km
new line.TR1246008 bus1=BMT167011602.1.2.3,bus2=BMT829804B.1.2.3,Phases=3,Linecode=CAB102_3_3,Length=0.030599000,Units=km
new line.TR1246022 bus1=BMT829804B.1.2.3,bus2=BMT829811B.1.2.3,Phases=3,Linecode=CAB102_3_3,Length=0.006084000,Units=km
new line.TR1246036 bus1=BMT829811B.1.2.3,bus2=BMT829818B.1.2.3,Phases=3,Linecode=CAB102_3_3,Length=0.023091000,Units=km
new line.TR1246050 bus1=BMT829818B.1.2.3,bus2=BMT833003B.1.2.3,Phases=3,Linecode=CAB102_3_3,Length=0.033739000,Units=km
new line.TR1246120 bus1=BMT166229272.1,bus2=BMT3022568B.1,Phases=1,Linecode=CAB202_3_1,Length=0.090699000,Units=km
new line.TR12461490 bus1=BMT172829681.1.2.3,bus2=BMT172829684.1.2.3,Phases=3,Linecode=CAB203_3_3,Length=0.041018000,Units=km
new line.TR12461491 bus1=BMT172829684.1.2.3,bus2=BMT172829685.1.2.3,Phases=3,Linecode=CAB203_3_3,Length=0.061042000,Units=km
new line.TR12461493 bus1=BMT172829684.3,bus2=BMT9070321B.3,Phases=1,Linecode=CAB103_3_1,Length=0.076169000,Units=km
new line.TR12461494 bus1=BMT9070321B.3,bus2=BMT172829686.3,Phases=1,Linecode=CAB103_3_1,Length=0.077535000,Units=km
new line.TR1246183 bus1=BMT829902B.1.2.3,bus2=BMT829930B.1.2.3,Phases=3,Linecode=CAB102_3_3,Length=0.030237000,Units=km
new line.TR1246218 bus1=BMT829930B.1.2.3,bus2=BMT165174967.1.2.3,Phases=3,Linecode=CAB102_3_3,Length=0.024417000,Units=km
new line.TR1246288 bus1=BMT152224150.3,bus2=BMT152224152.3,Phases=1,Linecode=CAB103_3_1,Length=0.034444000,Units=km
new line.TR1246309 bus1=BMT830028B.1.2.3,bus2=BMT152224150.1.2.3,Phases=3,Linecode=CAB103_3_3,Length=0.028182000,Units=km
new line.TR1246365 bus1=BMT172503399.1,bus2=BMT3066136B.1,Phases=1,Linecode=CAB202_3_1,Length=0.045974000,Units=km
new line.TR1249620 bus1=BMT831904B.1.2.3,bus2=BMT836027B.1.2.3,Phases=3,Linecode=CAB103_3_3,Length=0.029971000,Units=km
new line.TR1249627 bus1=BMT164575809.1.2.3,bus2=BMT831904B.1.2.3,Phases=3,Linecode=CAB103_3_3,Length=0.009851000,Units=km
new line.TR1249634 bus1=BMT164575809.1.2.3,bus2=BMT831918B.1.2.3,Phases=3,Linecode=CAB103_3_3,Length=0.029074000,Units=km
new line.TR1249641 bus1=BMT164575809.1.2.3,bus2=BMT831925B.1.2.3,Phases=3,Linecode=CAB103_3_3,Length=0.025004000,Units=km
new line.TR1249662 bus1=BMT831925B.1.2.3,bus2=BMT832667B.1.2.3,Phases=3,Linecode=CAB103_3_3,Length=0.039856000,Units=km
new line.TR10815722 bus1=BMT7069673B.1,bus2=BMT98398246.1,Phases=1,Linecode=CAB202_3_1,Length=0.306587000,Units=km
new line.TR10815729 bus1=BMT98398246.1,bus2=BMT98398253.1,Phases=1,Linecode=CAB103_3_1,Length=0.065009000,Units=km
new line.TR10815736 bus1=BMT98398239.1,bus2=BMT7069813B.1,Phases=1,Linecode=CAB202_3_1,Length=0.110740000,Units=km
new line.TR10815743 bus1=BMT7069813B.1,bus2=BMT7069673B.1,Phases=1,Linecode=CAB202_3_1,Length=0.069299000,Units=km
new line.TR10817857 bus1=BMT98398183.2,bus2=BMT98398190.2,Phases=1,Linecode=CAB103_3_1,Length=0.079086000,Units=km
new line.TR10817864 bus1=BMT98398183.2,bus2=BMT98398197.2,Phases=1,Linecode=CAB202_3_1,Length=0.089454000,Units=km
new line.TR12134260 bus1=BMT172134566.2,bus2=BMT148993287.2,Phases=1,Linecode=CAB202_3_1,Length=0.010298000,Units=km
new line.TR12134261 bus1=BMT171340761.2,bus2=BMT171340762.2,Phases=1,Linecode=CAB202_3_1,Length=0.231605000,Units=km
new line.TR12238204 bus1=BMT161732147.1.2.3,bus2=BMT8839759B.1.2.3,Phases=3,Linecode=CAB202_3_3,Length=0.052639000,Units=km
new line.TR12238206 bus1=BMT8839759B.1.2.3,bus2=BMT161732148.1.2.3,Phases=3,Linecode=CAB202_3_3,Length=0.104653000,Units=km
new line.TR12238207 bus1=BMT161732148.3,bus2=BMT161732149.3,Phases=1,Linecode=CAB202_3_1,Length=0.011404000,Units=km
new line.TR12238275 bus1=BMT161732148.1.2.3,bus2=BMT8839788B.1.2.3,Phases=3,Linecode=CAB102_3_3,Length=0.076333000,Units=km
new line.TR12238293 bus1=BMT8839788B.1.2.3,bus2=BMT161732150.1.2.3,Phases=3,Linecode=CAB102_3_3,Length=0.047081000,Units=km
new line.TR12241619 bus1=BMT172829680.3,bus2=BMT8843336B.3,Phases=1,Linecode=CAB202_3_1,Length=0.074824000,Units=km
new line.TR12241626 bus1=BMT8843336B.3,bus2=BMT172829682.3,Phases=1,Linecode=CAB202_3_1,Length=0.053608000,Units=km
new line.TR12275282 bus1=BMT170938859.2,bus2=BMT170938860.2,Phases=1,Linecode=CAB102_3_1,Length=0.032577000,Units=km
new line.TR12275283 bus1=BMT170938860.2,bus2=BMT170938861.2,Phases=1,Linecode=CAB102_3_1,Length=0.031627000,Units=km
new line.TR12275298 bus1=BMT170938860.2,bus2=BMT8878641B.2,Phases=1,Linecode=CAB103_3_1,Length=0.059781000,Units=km
new line.TR12275299 bus1=BMT8878641B.2,bus2=BMT170938862.2,Phases=1,Linecode=CAB103_3_1,Length=0.080538000,Units=km
new line.TR12293697 bus1=BMT166240872.2,bus2=BMT8895490B.2,Phases=1,Linecode=CAB202_3_1,Length=0.130114000,Units=km
new line.TR12293705 bus1=BMT8895490B.2,bus2=BMT166240874.2,Phases=1,Linecode=CAB202_3_1,Length=0.152090000,Units=km
new line.TR12357204 bus1=BMT172373669.2,bus2=BMT172373671.2,Phases=1,Linecode=CAB202_3_1,Length=0.114978000,Units=km
new line.TR12357205 bus1=BMT172373671.2,bus2=BMT172373672.2,Phases=1,Linecode=CAB202_3_1,Length=0.152912000,Units=km
new line.TR12415884 bus1=BMT167011601.1.2.3,bus2=BMT2333607B.1.2.3,Phases=3,Linecode=CABA06_3_3,Length=0.009221000,Units=km
new line.TR12415892 bus1=BMT2333607B.1.2.3,bus2=BMT2333614B.1.2.3,Phases=3,Linecode=CABA06_3_3,Length=0.037127000,Units=km
new line.TR12415893 bus1=BMT2333614B.1.2.3,bus2=BMT167011603.1.2.3,Phases=3,Linecode=CABA06_3_3,Length=0.040206000,Units=km
new line.TR12437141 bus1=BMT172831110.3,bus2=BMT9043273B.3,Phases=1,Linecode=CAB202_3_1,Length=0.102814000,Units=km
new line.TR12437142 bus1=BMT9043273B.3,bus2=BMT9043274B.3,Phases=1,Linecode=CAB202_3_1,Length=0.096018000,Units=km
new line.TR12437143 bus1=BMT9043274B.3,bus2=BMT9043275B.3,Phases=1,Linecode=CAB202_3_1,Length=0.060382000,Units=km
new line.TR12437144 bus1=BMT9043275B.3,bus2=BMT172831112.3,Phases=1,Linecode=CAB202_3_1,Length=0.096760000,Units=km
new line.TR1243803 bus1=BMT163852736.3,bus2=BMT163852738.3,Phases=1,Linecode=CAB202_3_1,Length=0.120224000,Units=km
new line.TR12439697 bus1=BMT169419532.3,bus2=BMT169419534.3,Phases=1,Linecode=CAB103_3_1,Length=0.030270000,Units=km
new line.TR1243971 bus1=BMT171710373.3,bus2=BMT171710374.3,Phases=1,Linecode=CAB202_3_1,Length=0.030467000,Units=km
new line.TR12439822 bus1=BMT172830295.3,bus2=BMT172830297.3,Phases=1,Linecode=CAB202_3_1,Length=0.026176000,Units=km
new line.TR12439823 bus1=BMT172830297.3,bus2=BMT172830298.3,Phases=1,Linecode=CAB202_3_1,Length=0.097635000,Units=km
new line.TR12439829 bus1=BMT172830297.3,bus2=BMT172830299.3,Phases=1,Linecode=CAB202_3_1,Length=0.244231000,Units=km
new line.TR1244020 bus1=BMT98398134.1,bus2=BMT98398141.1,Phases=1,Linecode=CAB202_3_1,Length=0.091149000,Units=km
new line.TR1247345 bus1=BMT172596174.1.2.3,bus2=BMT830602B.1.2.3,Phases=3,Linecode=CAB103_3_3,Length=0.028605000,Units=km
new line.TR1247387 bus1=BMT830602B.1.2.3,bus2=BMT830609B.1.2.3,Phases=3,Linecode=CAB103_3_3,Length=0.019420000,Units=km
new line.TR12473910 bus1=BMT3154497B.3,bus2=BMT166240038.3,Phases=1,Linecode=CAB202_3_1,Length=0.052809000,Units=km
new line.TR12473911 bus1=BMT166240038.3,bus2=BMT166240039.3,Phases=1,Linecode=CAB202_3_1,Length=0.067552000,Units=km
new line.TR12473927 bus1=BMT166240038.3,bus2=BMT9083667B.3,Phases=1,Linecode=CAB202_3_1,Length=0.109180000,Units=km
new line.TR12473928 bus1=BMT9083667B.3,bus2=BMT166240040.3,Phases=1,Linecode=CAB202_3_1,Length=0.108703000,Units=km
new line.TR12473934 bus1=BMT166240040.3,bus2=BMT166240041.3,Phases=1,Linecode=CAB103_3_1,Length=0.034137000,Units=km
new line.TR12473955 bus1=BMT161251405.3,bus2=BMT161251406.3,Phases=1,Linecode=CAB103_3_1,Length=0.068076000,Units=km
new line.TR12473956 bus1=BMT161251406.3,bus2=BMT9083687B.3,Phases=1,Linecode=CAB202_3_1,Length=0.123730000,Units=km
new line.TR12473957 bus1=BMT9083687B.3,bus2=BMT161251407.3,Phases=1,Linecode=CAB202_3_1,Length=0.095533000,Units=km
new line.TR1247401 bus1=BMT830609B.1.2.3,bus2=BMT172596175.1.2.3,Phases=3,Linecode=CAB103_3_3,Length=0.017208000,Units=km
new line.TR12476521 bus1=BMT172596186.1.2.3,bus2=BMT8982817B.1.2.3,Phases=3,Linecode=CABA06_3_3,Length=0.041887000,Units=km
new line.TR12476522 bus1=BMT8982817B.1.2.3,bus2=BMT8982818B.1.2.3,Phases=3,Linecode=CABA06_3_3,Length=0.038294000,Units=km
new line.TR12476523 bus1=BMT8982818B.1.2.3,bus2=BMT8982820B.1.2.3,Phases=3,Linecode=CABA06_3_3,Length=0.039667000,Units=km
new line.TR12476524 bus1=BMT8982820B.1.2.3,bus2=BMT8982825B.1.2.3,Phases=3,Linecode=CABA06_3_3,Length=0.039401000,Units=km
new line.TR12476525 bus1=BMT8982825B.1.2.3,bus2=BMT9086371B.1.2.3,Phases=3,Linecode=CABA06_3_3,Length=0.041887000,Units=km
new line.TR12476526 bus1=BMT9086371B.1.2.3,bus2=BMT172596189.1.2.3,Phases=3,Linecode=CABA06_3_3,Length=0.025243000,Units=km
new line.TR12511767 bus1=BMT162957010.3,bus2=BMT162957011.3,Phases=1,Linecode=CAB202_3_1,Length=0.086988000,Units=km
new line.TR10628591 bus1=BMT162846880.2,bus2=BMT162846881.2,Phases=1,Linecode=CAB103_3_1,Length=0.025243000,Units=km
new line.TR10628612 bus1=BMT162846881.2,bus2=BMT6891026B.2,Phases=1,Linecode=CAB202_3_1,Length=0.168428000,Units=km
new line.TR10628633 bus1=BMT6891026B.2,bus2=BMT162846882.2,Phases=1,Linecode=CAB202_3_1,Length=0.050227000,Units=km
new line.TR10628640 bus1=BMT162846882.2,bus2=BMT6891061B.2,Phases=1,Linecode=CAB202_3_1,Length=0.249739000,Units=km
new line.TR10628647 bus1=BMT6891061B.2,bus2=BMT162846883.2,Phases=1,Linecode=CAB202_3_1,Length=0.139034000,Units=km
new line.TR10628654 bus1=BMT162846883.2,bus2=BMT6891082B.2,Phases=1,Linecode=CAB202_3_1,Length=0.136052000,Units=km
new line.TR10628661 bus1=BMT6891082B.2,bus2=BMT162846885.2,Phases=1,Linecode=CAB202_3_1,Length=0.179653000,Units=km
new line.TR10628990 bus1=BMT162846883.2,bus2=BMT162846886.2,Phases=1,Linecode=CAB103_3_1,Length=0.045548000,Units=km
new line.TR10880535 bus1=BMT156582196.2,bus2=BMT7128746B.2,Phases=1,Linecode=CAB202_3_1,Length=0.173875000,Units=km
new line.TR10880542 bus1=BMT7128746B.2,bus2=BMT156582198.2,Phases=1,Linecode=CAB202_3_1,Length=0.102215000,Units=km
new line.TR10880969 bus1=BMT172829689.1,bus2=BMT172829690.1,Phases=1,Linecode=CAB103_3_1,Length=0.051096000,Units=km
new line.TR10881200 bus1=BMT172829685.1,bus2=BMT7129306B.1,Phases=1,Linecode=CAB202_3_1,Length=0.121360000,Units=km
new line.TR10881207 bus1=BMT7129306B.1,bus2=BMT7129376B.1,Phases=1,Linecode=CAB202_3_1,Length=0.125736000,Units=km
new line.TR10881214 bus1=BMT7129376B.1,bus2=BMT172829688.1,Phases=1,Linecode=CAB202_3_1,Length=0.097528000,Units=km
new line.TR11143917 bus1=BMT98399016.1.2.3,bus2=BMT7366795B.1.2.3,Phases=3,Linecode=CABA06_3_3,Length=0.010442000,Units=km
new line.TR11144204 bus1=BMT7366795B.1.2.3,bus2=BMT98399030.1.2.3,Phases=3,Linecode=CABA06_3_3,Length=0.027897000,Units=km
new line.TR11144211 bus1=BMT98399037.1.2.3,bus2=BMT98399044.1.2.3,Phases=3,Linecode=CAB902_4_3,Length=0.009221000,Units=km
new line.TR11370136 bus1=BMT3048517B.3,bus2=BMT98396650.3,Phases=1,Linecode=CAB202_3_1,Length=0.108418000,Units=km
new line.TR11370143 bus1=BMT98396650.3,bus2=BMT98396657.3,Phases=1,Linecode=CAB202_3_1,Length=0.164824000,Units=km
new line.TR11370185 bus1=BMT98396650.3,bus2=BMT7568423B.3,Phases=1,Linecode=CAB202_3_1,Length=0.068367000,Units=km
new line.TR11370192 bus1=BMT7568423B.3,bus2=BMT98396664.3,Phases=1,Linecode=CAB202_3_1,Length=0.236932000,Units=km
new line.TR11370199 bus1=BMT98396664.3,bus2=BMT98396671.3,Phases=1,Linecode=CAB103_3_1,Length=0.064288000,Units=km
new line.TR11748787 bus1=BMT168231695.1,bus2=BMT7924926B.1,Phases=1,Linecode=CAB103_3_1,Length=0.075009000,Units=km
new line.TR11748794 bus1=BMT7924926B.1,bus2=BMT168231697.1,Phases=1,Linecode=CAB103_3_1,Length=0.075009000,Units=km
new line.TR11748801 bus1=BMT168231697.1,bus2=BMT168231698.1,Phases=1,Linecode=CAB202_3_1,Length=0.109603000,Units=km
new line.TR11837652 bus1=BMT172596177.1.2.3,bus2=BMT834312B.1.2.3,Phases=3,Linecode=CABA06_3_3,Length=0.018604000,Units=km
new line.TR11837659 bus1=BMT834312B.1.2.3,bus2=BMT7997047B.1.2.3,Phases=3,Linecode=CABA06_3_3,Length=0.044425000,Units=km
new line.TR11837666 bus1=BMT7997047B.1.2.3,bus2=BMT7997068B.1.2.3,Phases=3,Linecode=CABA06_3_3,Length=0.036802000,Units=km
new line.TR11837673 bus1=BMT7997068B.1.2.3,bus2=BMT7997138B.1.2.3,Phases=3,Linecode=CABA06_3_3,Length=0.031150000,Units=km
new line.TR11837680 bus1=BMT7997138B.1.2.3,bus2=BMT172596178.1.2.3,Phases=3,Linecode=CABA06_3_3,Length=0.027591000,Units=km
new line.TR12387656 bus1=BMT165174966.1.2.3,bus2=BMT157833762.1.2.3,Phases=3,Linecode=CABA06_3_3,Length=0.024087000,Units=km
new line.TR12387657 bus1=BMT159883902.1.2.3,bus2=BMT829181B.1.2.3,Phases=3,Linecode=CABA06_3_3,Length=0.029073000,Units=km
new line.TR12387658 bus1=BMT829181B.1.2.3,bus2=BMT829188B.1.2.3,Phases=3,Linecode=CABA06_3_3,Length=0.035474000,Units=km
new line.TR12387659 bus1=BMT829188B.1.2.3,bus2=BMT829195B.1.2.3,Phases=3,Linecode=CABA06_3_3,Length=0.032808000,Units=km
new line.TR12387660 bus1=BMT829195B.1.2.3,bus2=BMT7671925B.1.2.3,Phases=3,Linecode=CABA06_3_3,Length=0.014869000,Units=km
new line.TR12387661 bus1=BMT7671925B.1.2.3,bus2=BMT159883903.1.2.3,Phases=3,Linecode=CABA06_3_3,Length=0.038955000,Units=km
new line.TR12387662 bus1=BMT159883903.1.2.3,bus2=BMT8993362B.1.2.3,Phases=3,Linecode=CABA06_3_3,Length=0.034064000,Units=km
new line.TR12387663 bus1=BMT8993362B.1.2.3,bus2=BMT159883904.1.2.3,Phases=3,Linecode=CABA06_3_3,Length=0.030615000,Units=km
new line.TR12387701 bus1=BMT159883903.1.2.3,bus2=BMT8993390B.1.2.3,Phases=3,Linecode=CABA06_3_3,Length=0.033292000,Units=km
new line.TR12387702 bus1=BMT8993390B.1.2.3,bus2=BMT8993392B.1.2.3,Phases=3,Linecode=CABA06_3_3,Length=0.033111000,Units=km
new line.TR12387703 bus1=BMT8993392B.1.2.3,bus2=BMT8993398B.1.2.3,Phases=3,Linecode=CABA06_3_3,Length=0.029838000,Units=km
new line.TR12387704 bus1=BMT8993398B.1.2.3,bus2=BMT159883905.1.2.3,Phases=3,Linecode=CABA06_3_3,Length=0.035614000,Units=km
new line.TR1246561 bus1=BMT166240865.2,bus2=BMT166240866.2,Phases=1,Linecode=CAB202_3_1,Length=0.068076000,Units=km
new line.TR1249242 bus1=BMT831729B.1.2.3,bus2=BMT834529B.1.2.3,Phases=3,Linecode=CAB102_3_3,Length=0.037006000,Units=km
new line.TR1249256 bus1=BMT161108896.1.2.3,bus2=BMT835299B.1.2.3,Phases=3,Linecode=CAB103_3_3,Length=0.025946000,Units=km
new line.TR1249270 bus1=BMT98391582.1.2.3,bus2=BMT831729B.1.2.3,Phases=3,Linecode=CAB102_3_3,Length=0.009489000,Units=km
new line.TR1249277 bus1=BMT98391582.1.2.3,bus2=BMT98391596.1.2.3,Phases=3,Linecode=CAB103_3_3,Length=0.010819000,Units=km
new line.TR1249284 bus1=BMT98391582.1.2.3,bus2=BMT831757B.1.2.3,Phases=3,Linecode=CAB102_3_3,Length=0.021544000,Units=km
new line.TR1249305 bus1=BMT98391568.1.2.3,bus2=BMT98391582.1.2.3,Phases=3,Linecode=CAB103_3_3,Length=0.026930000,Units=km
new line.TR1249326 bus1=BMT831757B.1.2.3,bus2=BMT98391603.1.2.3,Phases=3,Linecode=CAB102_3_3,Length=0.039856000,Units=km
new line.TR1249403 bus1=BMT831785B.1.2.3,bus2=BMT831792B.1.2.3,Phases=3,Linecode=CAB102_3_3,Length=0.031628000,Units=km
new line.TR1249431 bus1=BMT831792B.1.2.3,bus2=BMT831799B.1.2.3,Phases=3,Linecode=CAB102_3_3,Length=0.028465000,Units=km
new line.TR1249445 bus1=BMT831799B.1.2.3,bus2=BMT98398988.1.2.3,Phases=3,Linecode=CAB102_3_3,Length=0.031628000,Units=km
new line.TR1249459 bus1=BMT98398988.1.2.3,bus2=BMT831827B.1.2.3,Phases=3,Linecode=CAB102_3_3,Length=0.025004000,Units=km
new line.TR1249480 bus1=BMT831827B.1.2.3,bus2=BMT831834B.1.2.3,Phases=3,Linecode=CAB102_3_3,Length=0.030681000,Units=km
new line.TR1249501 bus1=BMT831834B.1.2.3,bus2=BMT831841B.1.2.3,Phases=3,Linecode=CAB102_3_3,Length=0.030369000,Units=km
new line.TR10984506 bus1=BMT172155931.1,bus2=BMT7220012B.1,Phases=1,Linecode=CAB202_3_1,Length=0.053243000,Units=km
new line.TR10984513 bus1=BMT7220012B.1,bus2=BMT172155932.1,Phases=1,Linecode=CAB202_3_1,Length=0.165326000,Units=km
new line.TR10984520 bus1=BMT172155932.1,bus2=BMT172155933.1,Phases=1,Linecode=CAB202_3_1,Length=0.146206000,Units=km
new line.TR10984807 bus1=BMT113779542.1,bus2=BMT7220271B.1,Phases=1,Linecode=CAB202_3_1,Length=0.106848000,Units=km
new line.TR10984856 bus1=BMT7220271B.1,bus2=BMT113779556.1,Phases=1,Linecode=CAB202_3_1,Length=0.056044000,Units=km
new line.TR10984968 bus1=BMT98392814.1,bus2=BMT98392828.1,Phases=1,Linecode=CAB202_3_1,Length=0.077115000,Units=km
new line.TR10985073 bus1=BMT98393038.1,bus2=BMT98393045.1,Phases=1,Linecode=CAB202_3_1,Length=0.036884000,Units=km
new line.TR10985080 bus1=BMT98393045.1,bus2=BMT98393052.1,Phases=1,Linecode=CAB202_3_1,Length=0.147535000,Units=km
new line.TR10996105 bus1=BMT98397378.3,bus2=BMT7228811B.3,Phases=1,Linecode=CAB202_3_1,Length=0.038592000,Units=km
new line.TR10996112 bus1=BMT7228811B.3,bus2=BMT7228818B.3,Phases=1,Linecode=CAB202_3_1,Length=0.395400000,Units=km
new line.TR10996119 bus1=BMT7228818B.3,bus2=BMT98397385.3,Phases=1,Linecode=CAB202_3_1,Length=0.191989000,Units=km
new line.TR12010104 bus1=BMT3048405B.1.2.3,bus2=BMT172266444.1.2.3,Phases=3,Linecode=CAB202_3_3,Length=0.178568000,Units=km
new line.TR12010111 bus1=BMT172266444.1.2.3,bus2=BMT172266446.1.2.3,Phases=3,Linecode=CAB202_3_3,Length=0.037541000,Units=km
new line.TR12010125 bus1=BMT172266444.3,bus2=BMT3623469B.3,Phases=1,Linecode=CAB202_3_1,Length=0.059040000,Units=km
new line.TR12010132 bus1=BMT3623469B.3,bus2=BMT172266447.3,Phases=1,Linecode=CAB202_3_1,Length=0.237522000,Units=km
new line.TR12014129 bus1=BMT172829693.3,bus2=BMT172829695.3,Phases=1,Linecode=CAB202_3_1,Length=0.065400000,Units=km
new line.TR12014136 bus1=BMT172830292.3,bus2=BMT172830293.3,Phases=1,Linecode=CAB202_3_1,Length=0.065400000,Units=km
new line.TR12141732 bus1=BMT172373682.2,bus2=BMT8735633B.2,Phases=1,Linecode=CAB202_3_1,Length=0.041236000,Units=km
new line.TR12141750 bus1=BMT8735633B.2,bus2=BMT172373690.2,Phases=1,Linecode=CAB202_3_1,Length=0.102637000,Units=km
new line.TR12235887 bus1=BMT835019B.1.2.3,bus2=BMT8837438B.1.2.3,Phases=3,Linecode=CAB103_3_3,Length=0.026253000,Units=km
new line.TR12235888 bus1=BMT8837438B.1.2.3,bus2=BMT835012B.1.2.3,Phases=3,Linecode=CAB103_3_3,Length=0.024087000,Units=km
new line.TR12235983 bus1=BMT835047B.1.2.3,bus2=BMT8837513B.1.2.3,Phases=3,Linecode=CAB103_3_3,Length=0.026930000,Units=km
new line.TR12235984 bus1=BMT835040B.1.2.3,bus2=BMT8837513B.1.2.3,Phases=3,Linecode=CAB103_3_3,Length=0.012085000,Units=km
new line.TR12283438 bus1=BMT163925262.2,bus2=BMT163925264.2,Phases=1,Linecode=CAB202_3_1,Length=0.195593000,Units=km
new line.TR12283439 bus1=BMT163925264.2,bus2=BMT163925265.2,Phases=1,Linecode=CAB103_3_1,Length=0.037058000,Units=km
new line.TR12377328 bus1=BMT172596183.1.2.3,bus2=BMT172596185.1.2.3,Phases=3,Linecode=CABA06_3_3,Length=0.021637000,Units=km
new line.TR12377329 bus1=BMT172596185.1.2.3,bus2=BMT8804224B.1.2.3,Phases=3,Linecode=CABA06_3_3,Length=0.031069000,Units=km
new line.TR12377330 bus1=BMT8804224B.1.2.3,bus2=BMT172596186.1.2.3,Phases=3,Linecode=CABA06_3_3,Length=0.040503000,Units=km
new line.TR12377553 bus1=BMT833409B.1.2.3,bus2=BMT166110279.1.2.3,Phases=3,Linecode=CAB102_3_3,Length=0.015234000,Units=km
new line.TR12377554 bus1=BMT166110279.1.2.3,bus2=BMT833423B.1.2.3,Phases=3,Linecode=CAB102_3_3,Length=0.018977000,Units=km
new line.TR12435672 bus1=BMT159534474.1,bus2=BMT159534476.1,Phases=1,Linecode=CAB202_3_1,Length=0.150646000,Units=km
new line.TR12435673 bus1=BMT159534476.1,bus2=BMT159534477.1,Phases=1,Linecode=CAB202_3_1,Length=0.068076000,Units=km
new line.TR12470139 bus1=BMT835250B.1.2.3,bus2=BMT161108898.1.2.3,Phases=3,Linecode=CAB103_3_3,Length=0.020128000,Units=km
new line.TR12470140 bus1=BMT161108898.1.2.3,bus2=BMT98391624.1.2.3,Phases=3,Linecode=CAB103_3_3,Length=0.007617000,Units=km
...
