2024_89_CemigReconfigurationCases/1_AlimsCemig/ALSD204/ALSD204ChavesMT.dss
new line.CTR137040 bus1=BMT98391974.1.2.3,bus2=BMT166240513.1.2.3,Phases=3,LineCode=tieSwitch,Length=0.001,Units=km,switch=T !numEQ 50361
new line.CTR137488 bus1=BMT98398666.1.2.3,bus2=BMT161731649.1.2.3,Phases=3,LineCode=tieSwitch,Length=0.001,Units=km,switch=T !numEQ 53903
new line.CTR137656 bus1=BMT98391456.1.2.3,bus2=BMT98391512.1.2.3,Phases=3,LineCode=tieSwitch,Length=0.001,Units=km,switch=T !numEQ 53798
new line.CTR523664 bus1=BMT98392555.3,bus2=BMT156370965.3,Phases=1,LineCode=tieSwitch1,Length=0.001,Units=km,switch=T !numEQ 51074
new line.CTR524588 bus1=BMT98395754.3,bus2=BMT98397455.3,Phases=1,LineCode=tieSwitch1,Length=0.001,Units=km,switch=T !numEQ 160151
new line.CTR525505 bus1=BMT98392030.1.2.3,bus2=BMT169753255.1.2.3,Phases=3,LineCode=tieSwitch,Length=0.001,Units=km,switch=T !numEQ 53803
new line.CTR585397 bus1=BMT98395705.1.2.3,bus2=BMT98397896.1.2.3,Phases=3,LineCode=tieSwitch,Length=0.001,Units=km,switch=T !numEQ 50681
new line.CTR587133 bus1=BMT98396244.2,bus2=BMT162302673.2,Phases=1,LineCode=tieSwitch1,Length=0.001,Units=km,switch=T !numEQ 51103
new line.CTR589373 bus1=BMT98392513.3,bus2=BMT98393059.3,Phases=1,LineCode=tieSwitch1,Length=0.001,Units=km,switch=T !numEQ 51933
new line.CTR590829 bus1=BMT98391624.1.2.3,bus2=BMT98399051.1.2.3,Phases=3,LineCode=tieSwitch,Length=0.001,Units=km,switch=T !numEQ 100664
new line.CTR654053 bus1=BMT98395775.1.2.3,bus2=BMT154738176.1.2.3,Phases=3,LineCode=tieSwitch,Length=0.001,Units=km,switch=T !numEQ 53775
new line.CTR654165 bus1=BMT98391939.1.2.3,bus2=BMT157435810.1.2.3,Phases=3,LineCode=tieSwitch,Length=0.001,Units=km,switch=T !numEQ 100656
new line.CTR720714 bus1=BMT98391995.1,bus2=BMT98398239.1,Phases=1,LineCode=tieSwitch1,Length=0.001,Units=km,switch=T !numEQ 210311
new line.CTR720994 bus1=BMT98395572.2,bus2=BMT98398176.2,Phases=1,LineCode=tieSwitch1,Length=0.001,Units=km,switch=T !numEQ 210734
new line.CTR86906 bus1=BMT98395677.1.2.3,bus2=BMT168231686.1.2.3,Phases=3,LineCode=tieSwitch,Length=0.001,Units=km,switch=T !numEQ 51863
new line.CTR901179 bus1=BMT167011609.1.2.3,bus2=BMT167012237.1.2.3,Phases=3,LineCode=tieSwitch,Length=0.001,Units=km,switch=T !numEQ 266799
new line.CTR915935 bus1=BMT172009538.3,bus2=BMT172009553.3,Phases=1,LineCode=tieSwitch1,Length=0.001,Units=km,switch=T !numEQ 276338
new line.CTR916353 bus1=BMT172134558.2,bus2=BMT172134563.2,Phases=1,LineCode=tieSwitch1,Length=0.001,Units=km,switch=T !numEQ 277071
new line.CTR916429 bus1=BMT172175876.1,bus2=BMT172298538.1,Phases=1,LineCode=tieSwitch1,Length=0.001,Units=km,switch=T !numEQ 276332
new line.CTR134394 bus1=BMT98391596.1.2.3,bus2=BMT161108896.1.2.3,Phases=3,LineCode=tieSwitch,Length=0.001,Units=km,switch=T !numEQ 53763
new line.CTR163610 bus1=BMT162769656.1.2.3,bus2=BMT171683029.1.2.3,Phases=3,LineCode=tieSwitch,Length=0.001,Units=km,switch=T !numEQ 50051
new line.CTR513584 bus1=BMT164199719.1.2.3,bus2=BMT98391505.1.2.3,Phases=3,LineCode=tieSwitch,Length=0.001,Units=km,switch=T !numEQ 53762
new line.CTR637449 bus1=BMT98398792.1.2.3,bus2=BMT172596172.1.2.3,Phases=3,LineCode=tieSwitch,Length=0.001,Units=km,switch=T !numEQ 100302
new line.CTR638163 bus1=BMT98398953.1.2.3,bus2=BMT98399002.1.2.3,Phases=3,LineCode=tieSwitch,Length=0.001,Units=km,switch=T !numEQ 53906
new line.CTR638345 bus1=BMT164575812.1.2.3,bus2=BMT98391568.1.2.3,Phases=3,LineCode=tieSwitch,Length=0.001,Units=km,switch=T !numEQ 53759
new line.CTR639353 bus1=BMT98391687.1.2.3,bus2=BMT167782228.1.2.3,Phases=3,LineCode=tieSwitch,Length=0.001,Units=km,switch=T !numEQ 53909
new line.CTR639521 bus1=BMT98398974.1.2.3,bus2=BMT98398981.1.2.3,Phases=3,LineCode=tieSwitch,Length=0.001,Units=km,switch=T !numEQ 53900
new line.CTR864086 bus1=BMT153940563.2,bus2=BMT170938859.2,Phases=1,LineCode=tieSwitch1,Length=0.001,Units=km,switch=T !numEQ 313095
new line.CTR898323 bus1=BMT166110283.1.2.3,bus2=BMT166119461.1.2.3,Phases=3,LineCode=tieSwitch,Length=0.001,Units=km,switch=T !numEQ 246658
new line.CTR898329 bus1=BMT166112531.1.2.3,bus2=BMT166119532.1.2.3,Phases=3,LineCode=tieSwitch,Length=0.001,Units=km,switch=T !numEQ 253589
new line.CTR91764 bus1=BMT171887100.2,bus2=BMT171878904.2,Phases=1,LineCode=tieSwitch1,Length=0.001,Units=km,switch=T !numEQ 53191
new line.CTR918649 bus1=BMT172829695.3,bus2=BMT172830292.3,Phases=1,LineCode=tieSwitch1,Length=0.001,Units=km,switch=T !numEQ 222745
new line.CTR918652 bus1=BMT172830314.3,bus2=BMT172831109.3,Phases=1,LineCode=tieSwitch1,Length=0.001,Units=km,switch=T !numEQ 270938
new line.CTR918656 bus1=BMT172830627.3,bus2=BMT172830633.3,Phases=1,LineCode=tieSwitch1,Length=0.001,Units=km,switch=T !numEQ 270906
new line.CTR135969 bus1=BMT98398967.1.2.3,bus2=BMT2102355.1.2.3,Phases=3,LineCode=tieSwitch,Length=0.001,Units=km,switch=T !numEQ 53905
open line.CTR135969 term=1
new line.CTR516510 bus1=BMT98392667.2,bus2=BMT98392702.2,Phases=1,LineCode=tieSwitch1,Length=0.001,Units=km,switch=T !numEQ 140544
new line.CTR600965 bus1=BMT98391778.1.2.3,bus2=BMT165174957.1.2.3,Phases=3,LineCode=tieSwitch,Length=0.001,Units=km,switch=T !numEQ 53757
new line.CTR663069 bus1=BMT137586766.3,bus2=BMT162899908.3,Phases=1,LineCode=tieSwitch1,Length=0.001,Units=km,switch=T !numEQ 160800
new line.CTR664035 bus1=BMT98396237.3,bus2=BMT153793061.3,Phases=1,LineCode=tieSwitch1,Length=0.001,Units=km,switch=T !numEQ 144021
new line.CTR667815 bus1=BMT98394151.3,bus2=BMT167391430.3,Phases=1,LineCode=tieSwitch1,Length=0.001,Units=km,switch=T !numEQ 144373
new line.CTR696529 bus1=BMT98392982.1,bus2=BMT113779521.1,Phases=1,LineCode=tieSwitch1,Length=0.001,Units=km,switch=T !numEQ 163362
new line.CTR69924 bus1=BMT153314039.3,bus2=BMT153314050.3,Phases=1,LineCode=tieSwitch1,Length=0.001,Units=km,switch=T !numEQ 126668
new line.CTR743359 bus1=BMT98399030.1.2.3,bus2=BMT98399037.1.2.3,Phases=3,LineCode=tieSwitch,Length=0.001,Units=km,switch=T !numEQ 222188
new line.CTR824048 bus1=BMT132290804.3,bus2=BMT132291035.3,Phases=1,LineCode=tieSwitch1,Length=0.001,Units=km,switch=T !numEQ 290294
new line.CTR85086 bus1=BMT98395649.1.2.3,bus2=BMT98398043.1.2.3,Phases=3,LineCode=tieSwitch,Length=0.001,Units=km,switch=T !numEQ 51158
new line.CTR85940 bus1=BMT98392282.1,bus2=BMT166229271.1,Phases=1,LineCode=tieSwitch1,Length=0.001,Units=km,switch=T !numEQ 51571
new line.CTR859893 bus1=BMT152868157.3,bus2=BMT164070250.3,Phases=1,LineCode=tieSwitch1,Length=0.001,Units=km,switch=T !numEQ 290286
new line.CTR859937 bus1=BMT152772606.1.2.3,bus2=BMT172266441.1.2.3,Phases=3,LineCode=tieSwitch,Length=0.001,Units=km,switch=T !numEQ 385595
new line.CTR872098 bus1=BMT156370967.3,bus2=BMT156370901.3,Phases=1,LineCode=tieSwitch1,Length=0.001,Units=km,switch=T !numEQ 234260
new line.CTR889322 bus1=BMT162772642.1,bus2=BMT163405995.1,Phases=1,LineCode=tieSwitch1,Length=0.001,Units=km,switch=T !numEQ 253393
new line.CTR889540 bus1=BMT171700936.1.2.3,bus2=BMT172503051.1.2.3,Phases=3,LineCode=tieSwitch,Length=0.001,Units=km,switch=T !numEQ 246380
new line.CTR889707 bus1=BMT162955893.3,bus2=BMT162957010.3,Phases=1,LineCode=tieSwitch1,Length=0.001,Units=km,switch=T !numEQ 243414
new line.CTR903550 bus1=BMT167786325.3,bus2=BMT167787531.3,Phases=1,LineCode=tieSwitch1,Length=0.001,Units=km,switch=T !numEQ 253920
new line.CTR908636 bus1=BMT169641911.1.2.3,bus2=BMT169642448.1.2.3,Phases=3,LineCode=tieSwitch,Length=0.001,Units=km,switch=T !numEQ 276310
new line.CTR93374 bus1=BMT98395943.1.2.3,bus2=BMT98396139.1.2.3,Phases=3,LineCode=tieSwitch,Length=0.001,Units=km,switch=T !numEQ 53696
new line.CTR93542 bus1=BMT98395600.1.2.3,bus2=BMT159534654.1.2.3,Phases=3,LineCode=tieSwitch,Length=0.001,Units=km,switch=T !numEQ 53777
new line.CTR94606 bus1=BMT98392289.2,bus2=BMT98392394.2,Phases=1,LineCode=tieSwitch1,Length=0.001,Units=km,switch=T !numEQ 53797
new line.CTRR37479 bus1=BMT172831126.3,bus2=BMT172831127.3,Phases=1,LineCode=tieSwitch1,Length=0.001,Units=km,switch=T !numEQ 329072
new line.CTRR38125 bus1=BMT169163855.1.2.3,bus2=BMT164199718.1.2.3,Phases=3,LineCode=tieSwitch,Length=0.001,Units=km,switch=T !numEQ 253487
new line.CTRR38230 bus1=BMT164575811.1.2.3,bus2=BMT2104861.1.2.3,Phases=3,LineCode=tieSwitch,Length=0.001,Units=km,switch=T !numEQ 253485
open line.CTRR38230 term=1
new line.CTR541332 bus1=BMT98396195.2,bus2=BMT98396608.2,Phases=1,LineCode=tieSwitch1,Length=0.001,Units=km,switch=T !numEQ 126652
new line.CTR636413 bus1=BMT98391701.1.2.3,bus2=BMT98391708.1.2.3,Phases=3,LineCode=tieSwitch,Length=0.001,Units=km,switch=T !numEQ 53907
new line.CTR636651 bus1=BMT167011607.1.2.3,bus2=BMT98391463.1.2.3,Phases=3,LineCode=tieSwitch,Length=0.001,Units=km,switch=T !numEQ 53794
open line.CTR636651 term=1
new line.CTR636749 bus1=BMT172830082.3,bus2=BMT172830097.3,Phases=1,LineCode=tieSwitch1,Length=0.001,Units=km,switch=T !numEQ 144338
new line.CTR712139 bus1=BMT162755856.2,bus2=BMT170938780.2,Phases=1,LineCode=tieSwitch1,Length=0.001,Units=km,switch=T !numEQ 210596
new line.CTR80746 bus1=BMT98395733.3,bus2=BMT98395782.3,Phases=1,LineCode=tieSwitch1,Length=0.001,Units=km,switch=T !numEQ 50052
new line.CTR830222 bus1=BMT135607572.1,bus2=BMT159534473.1,Phases=1,LineCode=tieSwitch1,Length=0.001,Units=km,switch=T !numEQ 297475
new line.CTR830236 bus1=BMT135609889.3,bus2=BMT135610225.3,Phases=1,LineCode=tieSwitch1,Length=0.001,Units=km,switch=T !numEQ 297476
new line.CTR860565 bus1=BMT156092613.1.2.3,bus2=BMT161732146.1.2.3,Phases=3,LineCode=tieSwitch,Length=0.001,Units=km,switch=T !numEQ 385593
new line.CTR86164 bus1=BMT98393451.3,bus2=BMT171710371.3,Phases=1,LineCode=tieSwitch1,Length=0.001,Units=km,switch=T !numEQ 51628
new line.CTR872815 bus1=BMT156582184.2,bus2=BMT156582192.2,Phases=1,LineCode=tieSwitch1,Length=0.001,Units=km,switch=T !numEQ 243881
new line.CTR874018 bus1=BMT156869446.3,bus2=BMT171266803.3,Phases=1,LineCode=tieSwitch1,Length=0.001,Units=km,switch=T !numEQ 245398
new line.CTR885676 bus1=BMT161249582.3,bus2=BMT161251404.3,Phases=1,LineCode=tieSwitch1,Length=0.001,Units=km,switch=T !numEQ 245321
new line.CTR886371 bus1=BMT166240516.2,bus2=BMT166240859.2,Phases=1,LineCode=tieSwitch1,Length=0.001,Units=km,switch=T !numEQ 246372
new line.CTR891050 bus1=BMT171878944.2,bus2=BMT163553170.2,Phases=1,LineCode=tieSwitch1,Length=0.001,Units=km,switch=T !numEQ 246401
open line.CTR891050 term=1
new line.CTR892070 bus1=BMT163947888.1,bus2=BMT172155931.1,Phases=1,LineCode=tieSwitch1,Length=0.001,Units=km,switch=T !numEQ 267192
new line.CTR892358 bus1=BMT164047093.1.2.3,bus2=BMT164047373.1.2.3,Phases=3,LineCode=tieSwitch,Length=0.001,Units=km,switch=T !numEQ 253378
new line.CTR904048 bus1=BMT167972382.1.2.3,bus2=BMT167972396.1.2.3,Phases=3,LineCode=tieSwitch,Length=0.001,Units=km,switch=T !numEQ 270323
new line.CTR904684 bus1=BMT168198530.3,bus2=BMT168198535.3,Phases=1,LineCode=tieSwitch1,Length=0.001,Units=km,switch=T !numEQ 268429
new line.CTR905288 bus1=BMT168422662.1,bus2=BMT171051416.1,Phases=1,LineCode=tieSwitch1,Length=0.001,Units=km,switch=T !numEQ 255291
new line.CTR95642 bus1=BMT98391736.1.2.3,bus2=BMT98398652.1.2.3,Phases=3,LineCode=tieSwitch,Length=0.001,Units=km,switch=T !numEQ 53912
new line.CTR143858 bus1=BMT98392016.1.2.3,bus2=BMT98398225.1.2.3,Phases=3,LineCode=tieSwitch,Length=0.001,Units=km,switch=T !numEQ 53802
new line.CTR29898 bus1=BMT98392856.3,bus2=BMT160233883.3,Phases=1,LineCode=tieSwitch1,Length=0.001,Units=km,switch=T !numEQ 51834
new line.CTR552182 bus1=BMT98393619.3,bus2=BMT169419531.3,Phases=1,LineCode=tieSwitch1,Length=0.001,Units=km,switch=T !numEQ 277023
new line.CTR613229 bus1=BMT98392366.3,bus2=BMT163824138.3,Phases=1,LineCode=tieSwitch1,Length=0.001,Units=km,switch=T !numEQ 74851
new line.CTR732425 bus1=BMT98394802.1,bus2=BMT172155929.1,Phases=1,LineCode=tieSwitch1,Length=0.001,Units=km,switch=T !numEQ 210982
new line.CTR732446 bus1=BMT98392975.1,bus2=BMT98393038.1,Phases=1,LineCode=tieSwitch1,Length=0.001,Units=km,switch=T !numEQ 222127
new line.CTR733111 bus1=BMT98396860.3,bus2=BMT98397378.3,Phases=1,LineCode=tieSwitch1,Length=0.001,Units=km,switch=T !numEQ 210966
new line.CTR73431 bus1=BMT98398736.1.2.3,bus2=BMT167011600.1.2.3,Phases=3,LineCode=tieSwitch,Length=0.001,Units=km,switch=T !numEQ 53806
new line.CTR81502 bus1=BMT165174960.1.2.3,bus2=BMT98391820.1.2.3,Phases=3,LineCode=tieSwitch,Length=0.001,Units=km,switch=T !numEQ 53795
new line.CTR85506 bus1=BMT115288210.1.2.3,bus2=BMT159038749.1.2.3,Phases=3,LineCode=tieSwitch,Length=0.001,Units=km,switch=T !numEQ 51322
new line.CTR86920 bus1=BMT98392219.1.2.3,bus2=BMT162769642.1.2.3,Phases=3,LineCode=tieSwitch,Length=0.001,Units=km,switch=T !numEQ 51864
new line.CTR905816 bus1=BMT171266817.3,bus2=BMT169419660.3,Phases=1,LineCode=tieSwitch1,Length=0.001,Units=km,switch=T !numEQ 277022
new line.CTR92114 bus1=BMT98395719.2,bus2=BMT172373648.2,Phases=1,LineCode=tieSwitch1,Length=0.001,Units=km,switch=T !numEQ 53338
new line.CTR93024 bus1=BMT98393850.3,bus2=BMT164100927.3,Phases=1,LineCode=tieSwitch1,Length=0.001,Units=km,switch=T !numEQ 140570
new line.CTRR36797 bus1=BMT162971180.1.2.3,bus2=BMT167972379.1.2.3,Phases=3,LineCode=tieSwitch,Length=0.001,Units=km,switch=T !numEQ 253472
new line.CTR125490 bus1=BMT98396874.1,bus2=BMT171623683.1,Phases=1,LineCode=tieSwitch1,Length=0.001,Units=km,switch=T !numEQ 50489
new line.CTR170220 bus1=BMT98397546.2,bus2=BMT170938863.2,Phases=1,LineCode=tieSwitch1,Length=0.001,Units=km,switch=T !numEQ 140543
new line.CTR533156 bus1=BMT98396825.1.2.3,bus2=BMT172176055.1.2.3,Phases=3,LineCode=tieSwitch,Length=0.001,Units=km,switch=T !numEQ 51826
new line.CTR534941 bus1=BMT98395985.1.2.3,bus2=BMT168422646.1.2.3,Phases=3,LineCode=tieSwitch,Length=0.001,Units=km,switch=T !numEQ 53776
new line.CTR537552 bus1=BMT98394991.1,bus2=BMT172155935.1,Phases=1,LineCode=tieSwitch1,Length=0.001,Units=km,switch=T !numEQ 140549
new line.CTR53810 bus1=BMT161108904.1.2.3,bus2=BMT98391666.1.2.3,Phases=3,LineCode=tieSwitch,Length=0.001,Units=km,switch=T !numEQ 53908
new line.CTR539211 bus1=BMT98391960.3,bus2=BMT98398470.3,Phases=1,LineCode=tieSwitch1,Length=0.001,Units=km,switch=T !numEQ 160360
new line.CTR596667 bus1=BMT98391869.1.2.3,bus2=BMT154990100.1.2.3,Phases=3,LineCode=tieSwitch,Length=0.001,Units=km,switch=T !numEQ 74577
new line.CTR598151 bus1=BMT98392100.1,bus2=BMT98395523.1,Phases=1,LineCode=tieSwitch1,Length=0.001,Units=km,switch=T !numEQ 53887
new line.CTR659485 bus1=BMT172176080.1.2.3,bus2=BMT171886772.1.2.3,Phases=3,LineCode=tieSwitch,Length=0.001,Units=km,switch=T !numEQ 51828
new line.CTR846891 bus1=BMT148993287.2,bus2=BMT171340761.2,Phases=1,LineCode=tieSwitch1,Length=0.001,Units=km,switch=T !numEQ 313190
new line.CTR866704 bus1=BMT154738194.1.2.3,bus2=BMT165256160.1.2.3,Phases=3,LineCode=tieSwitch,Length=0.001,Units=km,switch=T !numEQ 233825
new line.CTR881650 bus1=BMT159502197.3,bus2=BMT166240027.3,Phases=1,LineCode=tieSwitch1,Length=0.001,Units=km,switch=T !numEQ 243933
new line.CTR881653 bus1=BMT159503811.3,bus2=BMT163852729.3,Phases=1,LineCode=tieSwitch1,Length=0.001,Units=km,switch=T !numEQ 243932
new line.CTR915010 bus1=BMT171701406.2,bus2=BMT171701418.2,Phases=1,LineCode=tieSwitch1,Length=0.001,Units=km,switch=T !numEQ 277072
new line.CTR915580 bus1=BMT171884574.2,bus2=BMT171884583.2,Phases=1,LineCode=tieSwitch1,Length=0.001,Units=km,switch=T !numEQ 265867
new line.CTR915581 bus1=BMT171885025.1,bus2=BMT171885474.1,Phases=1,LineCode=tieSwitch1,Length=0.001,Units=km,switch=T !numEQ 265868
new line.CTRR11873 bus1=BMT98391890.1.2.3,bus2=BMT166062022.1.2.3,Phases=3,LineCode=tieSwitch,Length=0.001,Units=km,switch=T !numEQ 74898
new line.CTR102698 bus1=BMT98391477.1.2.3,bus2=BMT98399065.1.2.3,Phases=3,LineCode=tieSwitch,Length=0.001,Units=km,switch=T !numEQ 53927
new line.CTR159888 bus1=BMT98394354.3,bus2=BMT135621019.3,Phases=1,LineCode=tieSwitch1,Length=0.001,Units=km,switch=T !numEQ 160217
new line.CTR160098 bus1=BMT98396006.3,bus2=BMT148824853.3,Phases=1,LineCode=tieSwitch1,Length=0.001,Units=km,switch=T !numEQ 51094
new line.CTR189564464 bus1=BMT2389066954.1.2.3,bus2=BMT2189564465.1.2.3,Phases=3,LineCode=tieSwitch,Length=0.001,Units=km,switch=T !numEQ 
new line.CTR189564519 bus1=BMT2189564465.1.2.3,bus2=BMT2189564520.1.2.3,Phases=3,LineCode=tieSwitch,Length=0.001,Units=km,switch=T !numEQ 
new line.CTR189564562 bus1=BMT2189564172.1.2.3,bus2=BMT2389066954.1.2.3,Phases=3,LineCode=tieSwitch,Length=0.001,Units=km,switch=T !numEQ 
new line.CTR20420 bus1=BMT98398099.1,bus2=BMT98398120.1,Phases=1,LineCode=tieSwitch1,Length=0.001,Units=km,switch=T !numEQ 50207
new line.CTR30360 bus1=BMT98395957.1,bus2=BMT98397413.1,Phases=1,LineCode=tieSwitch1,Length=0.001,Units=km,switch=T !numEQ 51771
new line.CTR566889 bus1=BMT98393402.3,bus2=BMT166686765.3,Phases=1,LineCode=tieSwitch1,Length=0.001,Units=km,switch=T !numEQ 138164
new line.CTR68580 bus1=BMT98392625.1,bus2=BMT98392807.1,Phases=1,LineCode=tieSwitch1,Length=0.001,Units=km,switch=T !numEQ 140538
new line.CTR686582 bus1=BMT135612787.1,bus2=BMT135613914.1,Phases=1,LineCode=tieSwitch1,Length=0.001,Units=km,switch=T !numEQ 163364
new line.CTR755546 bus1=BMT98391407.1.2.3,bus2=BMT169163844.1.2.3,Phases=3,LineCode=tieSwitch,Length=0.001,Units=km,switch=T !numEQ 198280
new line.CTR761146 bus1=BMT98396048.3,bus2=BMT98396643.3,Phases=1,LineCode=tieSwitch1,Length=0.001,Units=km,switch=T !numEQ 222661
new line.CTR83686 bus1=BMT98398673.1.2.3,bus2=BMT152224137.1.2.3,Phases=3,LineCode=tieSwitch,Length=0.001,Units=km,switch=T !numEQ 53904
new line.CTR83700 bus1=BMT98392632.2,bus2=BMT98392716.2,Phases=1,LineCode=tieSwitch1,Length=0.001,Units=km,switch=T !numEQ 51777
new line.CTR83868 bus1=BMT98393192.2,bus2=BMT98395278.2,Phases=1,LineCode=tieSwitch1,Length=0.001,Units=km,switch=T !numEQ 108053
new line.CTR839420 bus1=BMT159534655.1.2.3,bus2=BMT159534664.1.2.3,Phases=3,LineCode=tieSwitch,Length=0.001,Units=km,switch=T !numEQ 316899
new line.CTR893984 bus1=BMT164531793.1.2.3,bus2=BMT165174971.1.2.3,Phases=3,LineCode=tieSwitch,Length=0.001,Units=km,switch=T !numEQ 269861
new line.CTR126498 bus1=BMT150291374.2,bus2=BMT163925261.2,Phases=1,LineCode=tieSwitch1,Length=0.001,Units=km,switch=T !numEQ 53706
new line.CTR141170 bus1=BMT98398575.1.2.3,bus2=BMT98398624.1.2.3,Phases=3,LineCode=tieSwitch,Length=0.001,Units=km,switch=T !numEQ 53902
new line.CTR142066 bus1=BMT98392261.1,bus2=BMT98395453.1,Phases=1,LineCode=tieSwitch1,Length=0.001,Units=km,switch=T !numEQ 118803
new line.CTR530118 bus1=BMT135596708.1.2.3,bus2=BMT172829677.1.2.3,Phases=3,LineCode=tieSwitch,Length=0.001,Units=km,switch=T !numEQ 50050
new line.CTR580693 bus1=BMT98394669.3,bus2=BMT172134712.3,Phases=1,LineCode=tieSwitch1,Length=0.001,Units=km,switch=T !numEQ 140573
new line.CTR583535 bus1=BMT98395691.1.2.3,bus2=BMT171266165.1.2.3,Phases=3,LineCode=tieSwitch,Length=0.001,Units=km,switch=T !numEQ 143228
new line.CTR583619 bus1=BMT98395614.1.2.3,bus2=BMT172469038.1.2.3,Phases=3,LineCode=tieSwitch,Length=0.001,Units=km,switch=T !numEQ 50196
new line.CTR644456 bus1=BMT98397910.1,bus2=BMT98397931.1,Phases=1,LineCode=tieSwitch1,Length=0.001,Units=km,switch=T !numEQ 142503
new line.CTR646185 bus1=BMT98392058.1,bus2=BMT98398204.1,Phases=1,LineCode=tieSwitch1,Length=0.001,Units=km,switch=T !numEQ 144303
new line.CTR646199 bus1=BMT98392065.1.2.3,bus2=BMT98395558.1.2.3,Phases=3,LineCode=tieSwitch,Length=0.001,Units=km,switch=T !numEQ 51845
new line.CTR649636 bus1=BMT98392534.1,bus2=BMT98392968.1,Phases=1,LineCode=tieSwitch1,Length=0.001,Units=km,switch=T !numEQ 51842
new line.CTR707183 bus1=BMT98398281.2,bus2=BMT162846879.2,Phases=1,LineCode=tieSwitch1,Length=0.001,Units=km,switch=T !numEQ 210112
new line.CTR776301 bus1=BMT98396790.2,bus2=BMT98397392.2,Phases=1,LineCode=tieSwitch1,Length=0.001,Units=km,switch=T !numEQ 290330
new line.CTR862933 bus1=BMT153603798.3,bus2=BMT153604307.3,Phases=1,LineCode=tieSwitch1,Length=0.001,Units=km,switch=T !numEQ 233729
new line.CTR863649 bus1=BMT153793062.3,bus2=BMT160241882.3,Phases=1,LineCode=tieSwitch1,Length=0.001,Units=km,switch=T !numEQ 233823
new line.CTR876940 bus1=BMT157833762.1.2.3,bus2=BMT159883902.1.2.3,Phases=3,LineCode=tieSwitch,Length=0.001,Units=km,switch=T !numEQ 249836
new line.CTRR42369 bus1=BMT171320931.1,bus2=BMT172503369.1,Phases=1,LineCode=tieSwitch1,Length=0.001,Units=km,switch=T !numEQ 276336
