2024_89_CemigReconfigurationCases/1_AlimsCemig/ALSD204/ALSD204SegmentosBT.dss
new line.11055493 bus1=BBT2704922.1.2.0,bus2=BBT2704929.1.2.0,Phases=2,Linecode=BT316_BT316_7_2_1,Length=0.000501000,Units=km
new line.11059637 bus1=BBT2705706.1.2.0,bus2=BBT2705713.1.2.0,Phases=2,Linecode=BT518_BT518_7_2_1,Length=0.000501000,Units=km
new line.11059644 bus1=BBT2705713.1.2.0,bus2=BBT2705734.1.2.0,Phases=2,Linecode=BT808_BT808_4_2_3,Length=0.057087000,Units=km
new line.11059651 bus1=BBT2705713.1.2.0,bus2=BBT3444962.1.2.0,Phases=2,Linecode=BT808_BT808_4_2_3,Length=0.042492000,Units=km
new line.11059693 bus1=BBT2705720.1.2.0,bus2=BBT2705727.1.2.0,Phases=2,Linecode=BT808_BT808_4_2_3,Length=0.038839000,Units=km
new line.11060603 bus1=BBT2705909.1.2.0,bus2=BBT2705916.1.2.0,Phases=2,Linecode=BT518_BT518_7_2_1,Length=0.000501000,Units=km
new line.11062031 bus1=BBT2706084.1.2.0,bus2=BBT2706091.1.2.0,Phases=2,Linecode=BT316_BT316_7_2_1,Length=0.000501000,Units=km
new line.11170776 bus1=BBT2718446.1.2.0,bus2=BBT2718453.1.2.0,Phases=2,Linecode=BT808_BT808_4_2_3,Length=0.060381000,Units=km
new line.11170797 bus1=BBT2718453.1.2.0,bus2=BBT2718460.1.2.0,Phases=2,Linecode=BT808_BT808_4_2_3,Length=0.061334000,Units=km
new line.11659502 bus1=BBT2797994.1.2.0,bus2=BBT2798001.1.2.0,Phases=2,Linecode=BT316_BT316_7_2_1,Length=0.000501000,Units=km
new line.11660265 bus1=BBT2798267.1.2.0,bus2=BBT2798274.1.2.0,Phases=2,Linecode=BT316_BT316_7_2_1,Length=0.000501000,Units=km
new line.11667209 bus1=BBT2799394.1.2.0,bus2=BBT2799401.1.2.0,Phases=2,Linecode=BT316_BT316_7_2_1,Length=0.000501000,Units=km
new line.11671927 bus1=BBT2800304.1.2.0,bus2=BBT2800311.1.2.0,Phases=2,Linecode=BT316_BT316_7_2_1,Length=0.000501000,Units=km
new line.11672662 bus1=BBT2800689.1.2.0,bus2=BBT2800696.1.2.0,Phases=2,Linecode=BT521_BT521_7_2_1,Length=0.000501000,Units=km
new line.11976826 bus1=BBT161108181.1.2.3.0,bus2=BBT2853595.1.2.3.0,Phases=3,Linecode=BT803_BT803_4_3_4,Length=0.019701000,Units=km
new line.11976847 bus1=BBT161108953.1.2.3.0,bus2=BBT32306528.1.2.3.0,Phases=3,Linecode=BT803_BT803_4_3_4,Length=0.023004000,Units=km
new line.12193938 bus1=BBT2893971.1.2.0,bus2=BBT2893978.1.2.0,Phases=2,Linecode=BT316_BT316_7_2_1,Length=0.000501000,Units=km
new line.12195247 bus1=BBT2894041.1.2.0,bus2=BBT2894048.1.2.0,Phases=2,Linecode=BT518_BT518_7_2_1,Length=0.000501000,Units=km
new line.12195254 bus1=BBT2894048.1.2.0,bus2=BBT2894055.1.2.0,Phases=2,Linecode=BT808_BT808_4_2_3,Length=0.041237000,Units=km
new line.12199615 bus1=BBT2898157.1.2.0,bus2=BBT2898164.1.2.0,Phases=2,Linecode=BT513_BT513_7_2_1,Length=0.000501000,Units=km
new line.12523484 bus1=BBT2969571.1.2.0,bus2=BBT2969578.1.2.0,Phases=2,Linecode=BT316_BT316_7_2_1,Length=0.000501000,Units=km
new line.12523505 bus1=BBT2969585.1.2.0,bus2=BBT2969592.1.2.0,Phases=2,Linecode=BT316_BT316_7_2_1,Length=0.000501000,Units=km
new line.12523512 bus1=BBT2969592.1.2.0,bus2=BBT3590023.1.2.0,Phases=2,Linecode=BT808_BT808_4_2_3,Length=0.035062000,Units=km
new line.12685520 bus1=BBT3013573.1.2.3.0,bus2=BBT3013580.1.2.3.0,Phases=3,Linecode=BT810_BT810_4_3_4,Length=0.028165000,Units=km
new line.12685527 bus1=BBT3013573.1.2.3.0,bus2=BBT3015120.1.2.3.0,Phases=3,Linecode=BT810_BT810_4_3_4,Length=0.029073000,Units=km
new line.12685548 bus1=BBT3013580.1.2.3.0,bus2=BBT3013587.1.2.3.0,Phases=3,Linecode=BT810_BT810_4_3_4,Length=0.028165000,Units=km
new line.12686416 bus1=BBT3015113.1.2.3.0,bus2=BBT3015141.1.2.3.0,Phases=3,Linecode=BT810_BT810_4_3_4,Length=0.030071000,Units=km
new line.12686423 bus1=BBT3015113.1.2.3.0,bus2=BBT3015127.1.2.3.0,Phases=3,Linecode=BT810_BT810_4_3_4,Length=0.027170000,Units=km
new line.12691883 bus1=BBT3015337.1.2.3.0,bus2=BBT3015358.1.2.3.0,Phases=3,Linecode=BT810_BT810_4_3_4,Length=0.027023000,Units=km
new line.12691890 bus1=BBT3015337.1.2.3.0,bus2=BBT3015344.1.2.3.0,Phases=3,Linecode=BT803_BT803_4_3_4,Length=0.035063000,Units=km
new line.12691911 bus1=BBT3015330.1.2.3.0,bus2=BBT3015337.1.2.3.0,Phases=3,Linecode=BT803_BT803_4_3_4,Length=0.025024000,Units=km
new line.12691932 bus1=BBT3015323.1.2.3.0,bus2=BBT3015330.1.2.3.0,Phases=3,Linecode=BT803_BT803_4_3_4,Length=0.025004000,Units=km
new line.12691974 bus1=BBT3015344.1.2.3.0,bus2=BBT3015351.1.2.3.0,Phases=3,Linecode=BT803_BT803_4_3_4,Length=0.035005000,Units=km
new line.12691995 bus1=BBT3015351.1.2.3.0,bus2=BBT3015379.1.2.3.0,Phases=3,Linecode=BT810_BT810_4_3_4,Length=0.035005000,Units=km
new line.12692121 bus1=BBT3015400.1.2.3.0,bus2=BBT3015407.1.2.3.0,Phases=3,Linecode=BT810_BT810_4_3_4,Length=0.032254000,Units=km
new line.12692142 bus1=BBT3015407.1.2.3.0,bus2=BBT3015414.1.2.3.0,Phases=3,Linecode=BT810_BT810_4_3_4,Length=0.028076000,Units=km
new line.12692156 bus1=BBT3015414.1.2.3.0,bus2=BBT3015421.1.2.3.0,Phases=3,Linecode=BT810_BT810_4_3_4,Length=0.026081000,Units=km
new line.12692170 bus1=BBT3015379.1.2.3.0,bus2=BBT3015386.1.2.3.0,Phases=3,Linecode=BT810_BT810_4_3_4,Length=0.029005000,Units=km
new line.12696342 bus1=BBT3017920.1.2.0,bus2=BBT3017927.1.2.0,Phases=2,Linecode=BT316_BT316_7_2_1,Length=0.000501000,Units=km
...